LTspice 24.0.12 for Windows
Circuit: * C:\Users\lokes\Desktop\RL_Project\RL_Project\ckt_0G_1Vin.asc
Start Time: Sat May 10 00:37:52 2025
solver = Normal
Maximum thread count: 18
tnom = 27
temp = 27
method = modified trap
WARNING: Node N005 is floating.
WARNING: Node N008 is floating.
WARNING: Node N010 is floating.

WARNING: Less than two connections to node n006.  This node is used by l§i2.
WARNING: Less than two connections to node n007.  This node is used by r4.
WARNING: Less than two connections to node n008.  This node is used by c4.
.OP point found by inspection.
Total elapsed time: 0.046 seconds.

