LTspice 24.0.12 for Windows
Circuit: * C:\Users\lokes\Desktop\RL_Project\RL_Project\custom_rl_circuit.asc
Start Time: Sat May 10 21:25:13 2025
solver = Normal
Maximum thread count: 18
tnom = 27
temp = 27
method = modified trap
AsciiRawFile = 1
WARNING: Less than two connections to node n002.  This node is used by r2.
WARNING: Less than two connections to node n003.  This node is used by r3.
.OP point found by inspection.
Total elapsed time: 0.011 seconds.

